   Input file: FE.txt
  Output file: FE.txt.out
Database file: phreeqc.dat

------------------
Reading data base.
------------------

	SOLUTION_MASTER_SPECIES
	SOLUTION_SPECIES
	PHASES
	EXCHANGE_MASTER_SPECIES
	EXCHANGE_SPECIES
	SURFACE_MASTER_SPECIES
	SURFACE_SPECIES
	RATES
------------------------------------
Reading input data for simulation 1.
------------------------------------

	Table 28. Partial input file for example 9.
WARNING: Unknown input, no keyword has been specified.
	TITLE Example 9.--Kinetically controlled oxidation of ferrous 
	                  iron. Decoupled valence states of iron.
	SOLUTION_MASTER_SPECIES
	Fe_di              Fe_di+2    0.0     Fe_di              55.847
	Fe_tri             Fe_tri+3   0.0     Fe_tri             55.847
	SOLUTION_SPECIES
	Fe_di+2 = Fe_di+2
	        log_k   0.0
	Fe_tri+3 = Fe_tri+3
	        log_k   0.0
	Fe_di+2 + H2O = Fe_diOH+ + H+
	        log_k   -9.5
	        delta_h 13.20   kcal
	Fe_tri+3 + H2O = Fe_triOH+2 + H+
	        log_k   -2.19
	        delta_h 10.4    kcal
	PHASES
	Goethite
	        Fe_triOOH + 3 H+ = Fe_tri+3 + 2 H2O
	        log_k   -1.0
	END
-----
TITLE
-----

 Example 9.--Kinetically controlled oxidation of ferrous 
                  iron. Decoupled valence states of iron.

------------------
End of simulation.
------------------

------------------------------------
Reading input data for simulation 2.
------------------------------------

	SOLUTION 1
	        pH  7.0
	        pe 10.0  O2(g) -0.67
	        Fe_di  0.1
	        Na  10.
	        Cl  10.  charge
	EQUILIBRIUM_PHASES 1
	        O2(g)           -0.67
	RATES
	Fe_di_ox
	  start
	  10  Fe_di = TOT("Fe_di")
	  20  if (Fe_di <= 0) then goto 200
	  30  p_o2 = SR("O2(g)")
	  40  moles = (2.91e-9 + 1.33e12 * (ACT("OH-"))^2 * p_o2) * Fe_di * TIME
	  200 SAVE moles
	  end
	KINETICS 1
	Fe_di_ox
	        formula  Fe_di  -1.0  Fe_tri  1.0
	        steps 100 400 3100 10800 21600 5.04e4 8.64e4 1.728e5 1.728e5 1.728e5 1.728e5 
	        step_divide 1e-4
	INCREMENTAL_REACTIONS true
	SELECTED_OUTPUT
	        file ex9.sel
	        reset false
	USER_PUNCH
	        headings Days  Fe(2)  Fe(3)  pH  si_goethite
	  10 PUNCH SIM_TIME / 3600 / 24, TOT("Fe_di")*1e6, TOT("Fe_tri")*1e6, -LA("H+"),	SI("Goethite")
	USER_GRAPH Example 9
	        -headings _time_ Fe(2) Fe(3) pH
	        -chart_title "Oxidation of Ferrous Iron"
	        -axis_titles "Time, in days" "Micromole per kilogram water" "pH"
	        -axis_scale secondary_y_axis 4.0 7.0 1.0 0.5
	  -start
	  10 GRAPH_X TOTAL_TIME / 3600 / 24 
	  20 GRAPH_Y TOT("Fe_di")*1e6, TOT("Fe_tri")*1e6 
	  30 GRAPH_SY -LA("H+")
	  -end
	END
-------------------------------------------
Beginning of initial solution calculations.
-------------------------------------------

Initial solution 1.	

-----------------------------Solution composition------------------------------

	Elements           Molality       Moles

	Cl                1.020e-02   1.020e-02  Charge balance
	Fe_di             1.000e-04   1.000e-04
	Na                1.000e-02   1.000e-02

----------------------------Description of solution----------------------------

                                       pH  =   7.000    
                                       pe  =  13.629      Equilibrium with O2(g)
      Specific Conductance (µS/cm,  25°C)  = 1188
                          Density (g/cm³)  =   0.99748
                               Volume (L)  =   1.00314
                        Activity of water  =   1.000
                 Ionic strength (mol/kgw)  =   1.030e-02
                       Mass of water (kg)  =   1.000e+00
                 Total alkalinity (eq/kg)  =   2.328e-07
                    Total carbon (mol/kg)  =   0.000e+00
                       Total CO2 (mol/kg)  =   0.000e+00
                         Temperature (°C)  =  25.00
                  Electrical balance (eq)  =  -9.579e-18
 Percent error, 100*(Cat-|An|)/(Cat+|An|)  =  -0.00
                               Iterations  =   9
                                  Total H  = 1.110124e+02
                                  Total O  = 5.550676e+01

----------------------------Distribution of species----------------------------

                                               Log       Log       Log    mole V
   Species          Molality    Activity  Molality  Activity     Gamma   cm³/mol

   OH-             1.113e-07   1.001e-07    -6.953    -7.000    -0.046     (0)  
   H+              1.096e-07   1.000e-07    -6.960    -7.000    -0.040      0.00
   H2O             5.551e+01   9.997e-01     1.744    -0.000     0.000     18.07
Cl            1.020e-02
   Cl-             1.020e-02   9.170e-03    -1.991    -2.038    -0.046     17.91
Fe_di         1.000e-04
   Fe_di+2         9.977e-05   6.567e-05    -4.001    -4.183    -0.182     (0)  
   Fe_diOH+        2.305e-07   2.076e-07    -6.637    -6.683    -0.045     (0)  
H(0)          0.000e+00
   H2              0.000e+00   0.000e+00   -44.410   -44.409     0.001     (0)  
Na            1.000e-02
   Na+             1.000e-02   9.018e-03    -2.000    -2.045    -0.045     -1.10
   NaOH            5.942e-10   5.956e-10    -9.226    -9.225     0.001     (0)  
O(0)          5.466e-04
   O2              2.733e-04   2.739e-04    -3.563    -3.562     0.001     (0)  

------------------------------Saturation indices-------------------------------

  Phase               SI** log IAP   log K(298 K,   1 atm)

  H2(g)           -41.26    -44.41   -3.15  H2
  H2O(g)           -1.51     -0.00    1.51  H2O
  Halite           -5.66     -4.08    1.58  NaCl
  O2(g)            -0.67     -3.56   -2.89  O2

**For a gas, SI = log10(fugacity). Fugacity = pressure * phi / 1 atm.
  For ideal gases, phi = 1.

-----------------------------------------
Beginning of batch-reaction calculations.
-----------------------------------------

Reaction step 1.

Using solution 1.	
Using pure phase assemblage 1.	
Using kinetics 1.	

Kinetics 1.	

	Time step: 100 seconds  (Incremented time: 100 seconds)

	Rate name       Delta Moles Total Moles   Reactant        Coefficient

	Fe_di_ox         -2.849e-05   1.000e+00   Fe_di                    -1
	                                          Fe_tri                    1

-------------------------------Phase assemblage--------------------------------

                                                      Moles in assemblage
Phase               SI  log IAP  log K(T, P)   Initial       Final       Delta

O2(g)            -0.67    -3.56     -2.89    1.000e+01   1.000e+01  -7.121e-06

-----------------------------Solution composition------------------------------

	Elements           Molality       Moles

	Cl                1.020e-02   1.020e-02
	Fe_di             7.151e-05   7.151e-05
	Fe_tri            2.849e-05   2.849e-05
	Na                1.000e-02   1.000e-02

----------------------------Description of solution----------------------------

                                       pH  =   7.072      Charge balance
                                       pe  =  13.558      Adjusted to redox equilibrium
      Specific Conductance (µS/cm,  25°C)  = 1188
                          Density (g/cm³)  =   0.99748
                               Volume (L)  =   1.00314
                        Activity of water  =   1.000
                 Ionic strength (mol/kgw)  =   1.030e-02
                       Mass of water (kg)  =   1.000e+00
                 Total alkalinity (eq/kg)  =   2.872e-05
                    Total carbon (mol/kg)  =   0.000e+00
                       Total CO2 (mol/kg)  =   0.000e+00
                         Temperature (°C)  =  25.00
                  Electrical balance (eq)  =   2.861e-17
 Percent error, 100*(Cat-|An|)/(Cat+|An|)  =   0.00
                               Iterations  =  24
                                  Total H  = 1.110124e+02
                                  Total O  = 5.550678e+01

----------------------------Distribution of species----------------------------

                                               Log       Log       Log    mole V
   Species          Molality    Activity  Molality  Activity     Gamma   cm³/mol

   OH-             1.313e-07   1.180e-07    -6.882    -6.928    -0.046     (0)  
   H+              9.292e-08   8.478e-08    -7.032    -7.072    -0.040      0.00
   H2O             5.551e+01   9.997e-01     1.744    -0.000     0.000     18.07
Cl            1.020e-02
   Cl-             1.020e-02   9.170e-03    -1.991    -2.038    -0.046     17.91
Fe_di         7.151e-05
   Fe_di+2         7.132e-05   4.694e-05    -4.147    -4.328    -0.182     (0)  
   Fe_diOH+        1.943e-07   1.750e-07    -6.711    -6.757    -0.045     (0)  
Fe_tri        2.849e-05
   Fe_triOH+2      2.849e-05   1.875e-05    -4.545    -4.727    -0.182     (0)  
   Fe_tri+3        6.312e-10   2.463e-10    -9.200    -9.609    -0.409     (0)  
H(0)          0.000e+00
   H2              0.000e+00   0.000e+00   -44.410   -44.409     0.001     (0)  
Na            1.000e-02
   Na+             1.000e-02   9.018e-03    -2.000    -2.045    -0.045     -1.10
   NaOH            7.008e-10   7.025e-10    -9.154    -9.153     0.001     (0)  
O(0)          5.466e-04
   O2              2.733e-04   2.739e-04    -3.563    -3.562     0.001     (0)  

------------------------------Saturation indices-------------------------------

  Phase               SI** log IAP   log K(298 K,   1 atm)

  Goethite         12.61     11.61   -1.00  Fe_triOOH
  H2(g)           -41.26    -44.41   -3.15  H2
  H2O(g)           -1.51     -0.00    1.51  H2O
  Halite           -5.66     -4.08    1.58  NaCl
  O2(g)            -0.67     -3.56   -2.89  O2

**For a gas, SI = log10(fugacity). Fugacity = pressure * phi / 1 atm.
  For ideal gases, phi = 1.

Reaction step 2.

Using solution 1.	
Using pure phase assemblage 1.	
Using kinetics 1.	

Kinetics 1.	

	Time step: 400 seconds  (Incremented time: 500 seconds)

	Rate name       Delta Moles Total Moles   Reactant        Coefficient

	Fe_di_ox         -7.027e-05   9.999e-01   Fe_di                    -1
	                                          Fe_tri                    1

-------------------------------Phase assemblage--------------------------------

                                                      Moles in assemblage
Phase               SI  log IAP  log K(T, P)   Initial       Final       Delta

O2(g)            -0.67    -3.56     -2.89    1.000e+01   1.000e+01  -1.757e-05

-----------------------------Solution composition------------------------------

	Elements           Molality       Moles

	Cl                1.020e-02   1.020e-02
	Fe_di             1.247e-06   1.247e-06
	Fe_tri            9.875e-05   9.875e-05
	Na                1.000e-02   1.000e-02

----------------------------Description of solution----------------------------

                                       pH  =   7.386      Charge balance
                                       pe  =  13.244      Adjusted to redox equilibrium
      Specific Conductance (µS/cm,  25°C)  = 1188
                          Density (g/cm³)  =   0.99748
                               Volume (L)  =   1.00314
                        Activity of water  =   1.000
                 Ionic strength (mol/kgw)  =   1.030e-02
                       Mass of water (kg)  =   1.000e+00
                 Total alkalinity (eq/kg)  =   9.899e-05
                    Total carbon (mol/kg)  =   0.000e+00
                       Total CO2 (mol/kg)  =   0.000e+00
                         Temperature (°C)  =  25.00
                  Electrical balance (eq)  =   7.522e-14
 Percent error, 100*(Cat-|An|)/(Cat+|An|)  =   0.00
                               Iterations  = 143
                                  Total H  = 1.110124e+02
                                  Total O  = 5.550681e+01

----------------------------Distribution of species----------------------------

                                               Log       Log       Log    mole V
   Species          Molality    Activity  Molality  Activity     Gamma   cm³/mol

   OH-             2.706e-07   2.432e-07    -6.568    -6.614    -0.046     (0)  
   H+              4.510e-08   4.115e-08    -7.346    -7.386    -0.040      0.00
   H2O             5.551e+01   9.997e-01     1.744    -0.000     0.000     18.07
Cl            1.020e-02
   Cl-             1.020e-02   9.170e-03    -1.991    -2.038    -0.046     17.91
Fe_di         1.247e-06
   Fe_di+2         1.240e-06   8.160e-07    -5.907    -6.088    -0.182     (0)  
   Fe_diOH+        6.959e-09   6.268e-09    -8.157    -8.203    -0.045     (0)  
Fe_tri        9.875e-05
   Fe_triOH+2      9.875e-05   6.500e-05    -4.005    -4.187    -0.182     (0)  
   Fe_tri+3        1.062e-09   4.144e-10    -8.974    -9.383    -0.409     (0)  
H(0)          0.000e+00
   H2              0.000e+00   0.000e+00   -44.410   -44.409     0.001     (0)  
Na            1.000e-02
   Na+             1.000e-02   9.018e-03    -2.000    -2.045    -0.045     -1.10
   NaOH            1.444e-09   1.447e-09    -8.840    -8.839     0.001     (0)  
O(0)          5.466e-04
   O2              2.733e-04   2.739e-04    -3.563    -3.562     0.001     (0)  

------------------------------Saturation indices-------------------------------

  Phase               SI** log IAP   log K(298 K,   1 atm)

  Goethite         13.77     12.77   -1.00  Fe_triOOH
  H2(g)           -41.26    -44.41   -3.15  H2
  H2O(g)           -1.51     -0.00    1.51  H2O
  Halite           -5.66     -4.08    1.58  NaCl
  O2(g)            -0.67     -3.56   -2.89  O2

**For a gas, SI = log10(fugacity). Fugacity = pressure * phi / 1 atm.
  For ideal gases, phi = 1.

Reaction step 3.

WARNING: Negative moles in solution for Fe_di, -1.175086e-05. Recovering...
WARNING: Negative moles in solution for Fe_di, -1.750561e-06. Recovering...
WARNING: Negative moles in solution for Fe_di, -1.070556e-09. Recovering...
WARNING: Negative moles in solution for Fe_di, -6.869853e-10. Recovering...
WARNING: Negative moles in solution for Fe_di, -3.618310e-10. Recovering...
WARNING: Negative moles in solution for Fe_di, -1.605993e-10. Recovering...
WARNING: Negative moles in solution for Fe_di, -6.023418e-11. Recovering...
WARNING: Negative moles in solution for Fe_di, -1.893874e-11. Recovering...
WARNING: Negative moles in solution for Fe_di, -8.761929e-14. Recovering...
WARNING: Negative moles in solution for Fe_di, -2.875641e-14. Recovering...
WARNING: Negative moles in solution for Fe_di, -5.462500e-15. Recovering...
WARNING: Negative moles in solution for Fe_di, -7.333676e-16. Recovering...
WARNING: Negative moles in solution for Fe_di, -6.914738e-18. Recovering...
WARNING: Negative moles in solution for Fe_di, -6.249929e-17. Recovering...
WARNING: Negative moles in solution for Fe_di, -6.030565e-17. Recovering...
WARNING: Negative moles in solution for Fe_di, -4.087608e-17. Recovering...
WARNING: Negative moles in solution for Fe_di, -2.245322e-17. Recovering...
WARNING: Negative moles in solution for Fe_di, -1.036162e-17. Recovering...
WARNING: Negative moles in solution for Fe_di, -4.043042e-18. Recovering...
WARNING: Negative moles in solution for Fe_di, -1.325812e-18. Recovering...
WARNING: Negative moles in solution for Fe_di, -5.100582e-21. Recovering...
WARNING: Negative moles in solution for Fe_di, -2.087234e-21. Recovering...
WARNING: Negative moles in solution for Fe_di, -4.376784e-22. Recovering...
WARNING: Negative moles in solution for Fe_di, -6.314386e-23. Recovering...
WARNING: Negative moles in solution for Fe_di, -6.920007e-24. Recovering...
WARNING: Negative moles in solution for Fe_di, -7.157950e-25. Recovering...
WARNING: Negative moles in solution for Fe_di, -8.046920e-25. Recovering...
WARNING: Negative moles in solution for Fe_di, -5.847704e-25. Recovering...
WARNING: Negative moles in solution for Fe_di, -3.386286e-25. Recovering...
Using solution 1.	
Using pure phase assemblage 1.	
Using kinetics 1.	

Kinetics 1.	

	Time step: 3100 seconds  (Incremented time: 3600 seconds)

	Rate name       Delta Moles Total Moles   Reactant        Coefficient

	Fe_di_ox         -1.247e-06   9.999e-01   Fe_di                    -1
	                                          Fe_tri                    1

-------------------------------Phase assemblage--------------------------------

                                                      Moles in assemblage
Phase               SI  log IAP  log K(T, P)   Initial       Final       Delta

O2(g)            -0.67    -3.56     -2.89    1.000e+01   1.000e+01  -3.117e-07

-----------------------------Solution composition------------------------------

	Elements           Molality       Moles

	Cl                1.020e-02   1.020e-02
	Fe_tri            1.000e-04   1.000e-04
	Na                1.000e-02   1.000e-02

----------------------------Description of solution----------------------------

                                       pH  =   7.395      Charge balance
                                       pe  =  13.234      Adjusted to redox equilibrium
      Specific Conductance (µS/cm,  25°C)  = 1188
                          Density (g/cm³)  =   0.99748
                               Volume (L)  =   1.00314
                        Activity of water  =   1.000
                 Ionic strength (mol/kgw)  =   1.030e-02
                       Mass of water (kg)  =   1.000e+00
                 Total alkalinity (eq/kg)  =   1.002e-04
                    Total carbon (mol/kg)  =   0.000e+00
                       Total CO2 (mol/kg)  =   0.000e+00
                         Temperature (°C)  =  25.00
                  Electrical balance (eq)  =   1.036e-13
 Percent error, 100*(Cat-|An|)/(Cat+|An|)  =   0.00
                               Iterations  = 782
                                  Total H  = 1.110124e+02
                                  Total O  = 5.550681e+01

----------------------------Distribution of species----------------------------

                                               Log       Log       Log    mole V
   Species          Molality    Activity  Molality  Activity     Gamma   cm³/mol

   OH-             2.765e-07   2.485e-07    -6.558    -6.605    -0.046     (0)  
   H+              4.413e-08   4.027e-08    -7.355    -7.395    -0.040      0.00
   H2O             5.551e+01   9.997e-01     1.744    -0.000     0.000     18.07
Cl            1.020e-02
   Cl-             1.020e-02   9.170e-03    -1.991    -2.038    -0.046     17.91
Fe_tri        1.000e-04
   Fe_triOH+2      1.000e-04   6.582e-05    -4.000    -4.182    -0.182     (0)  
   Fe_tri+3        1.052e-09   4.106e-10    -8.978    -9.387    -0.409     (0)  
H(0)          0.000e+00
   H2              0.000e+00   0.000e+00   -44.410   -44.409     0.001     (0)  
Na            1.000e-02
   Na+             1.000e-02   9.018e-03    -2.000    -2.045    -0.045     -1.10
   NaOH            1.476e-09   1.479e-09    -8.831    -8.830     0.001     (0)  
O(0)          5.466e-04
   O2              2.733e-04   2.739e-04    -3.563    -3.562     0.001     (0)  

------------------------------Saturation indices-------------------------------

  Phase               SI** log IAP   log K(298 K,   1 atm)

  Goethite         13.80     12.80   -1.00  Fe_triOOH
  H2(g)           -41.26    -44.41   -3.15  H2
  H2O(g)           -1.51     -0.00    1.51  H2O
  Halite           -5.66     -4.08    1.58  NaCl
  O2(g)            -0.67     -3.56   -2.89  O2

**For a gas, SI = log10(fugacity). Fugacity = pressure * phi / 1 atm.
  For ideal gases, phi = 1.

Reaction step 4.

Using solution 1.	
Using pure phase assemblage 1.	
Using kinetics 1.	

Kinetics 1.	

	Time step: 10800 seconds  (Incremented time: 14400 seconds)

	Rate name       Delta Moles Total Moles   Reactant        Coefficient

	Fe_di_ox         -0.000e+00   9.999e-01   Fe_di                    -1
	                                          Fe_tri                    1

-------------------------------Phase assemblage--------------------------------

                                                      Moles in assemblage
Phase               SI  log IAP  log K(T, P)   Initial       Final       Delta

O2(g)            -0.67    -3.56     -2.89    1.000e+01   1.000e+01  -5.329e-15

-----------------------------Solution composition------------------------------

	Elements           Molality       Moles

	Cl                1.020e-02   1.020e-02
	Fe_tri            1.000e-04   1.000e-04
	Na                1.000e-02   1.000e-02

----------------------------Description of solution----------------------------

                                       pH  =   7.395      Charge balance
                                       pe  =  13.234      Adjusted to redox equilibrium
      Specific Conductance (µS/cm,  25°C)  = 1188
                          Density (g/cm³)  =   0.99748
                               Volume (L)  =   1.00314
                        Activity of water  =   1.000
                 Ionic strength (mol/kgw)  =   1.030e-02
                       Mass of water (kg)  =   1.000e+00
                 Total alkalinity (eq/kg)  =   1.002e-04
                    Total carbon (mol/kg)  =   0.000e+00
                       Total CO2 (mol/kg)  =   0.000e+00
                         Temperature (°C)  =  25.00
                  Electrical balance (eq)  =   1.036e-13
 Percent error, 100*(Cat-|An|)/(Cat+|An|)  =   0.00
                               Iterations  =   5
                                  Total H  = 1.110124e+02
                                  Total O  = 5.550681e+01

----------------------------Distribution of species----------------------------

                                               Log       Log       Log    mole V
   Species          Molality    Activity  Molality  Activity     Gamma   cm³/mol

   OH-             2.765e-07   2.485e-07    -6.558    -6.605    -0.046     (0)  
   H+              4.413e-08   4.027e-08    -7.355    -7.395    -0.040      0.00
   H2O             5.551e+01   9.997e-01     1.744    -0.000     0.000     18.07
Cl            1.020e-02
   Cl-             1.020e-02   9.170e-03    -1.991    -2.038    -0.046     17.91
Fe_tri        1.000e-04
   Fe_triOH+2      1.000e-04   6.582e-05    -4.000    -4.182    -0.182     (0)  
   Fe_tri+3        1.052e-09   4.106e-10    -8.978    -9.387    -0.409     (0)  
H(0)          0.000e+00
   H2              0.000e+00   0.000e+00   -44.410   -44.409     0.001     (0)  
Na            1.000e-02
   Na+             1.000e-02   9.018e-03    -2.000    -2.045    -0.045     -1.10
   NaOH            1.476e-09   1.479e-09    -8.831    -8.830     0.001     (0)  
O(0)          5.466e-04
   O2              2.733e-04   2.739e-04    -3.563    -3.562     0.001     (0)  

------------------------------Saturation indices-------------------------------

  Phase               SI** log IAP   log K(298 K,   1 atm)

  Goethite         13.80     12.80   -1.00  Fe_triOOH
  H2(g)           -41.26    -44.41   -3.15  H2
  H2O(g)           -1.51     -0.00    1.51  H2O
  Halite           -5.66     -4.08    1.58  NaCl
  O2(g)            -0.67     -3.56   -2.89  O2

**For a gas, SI = log10(fugacity). Fugacity = pressure * phi / 1 atm.
  For ideal gases, phi = 1.

Reaction step 5.

Using solution 1.	
Using pure phase assemblage 1.	
Using kinetics 1.	

Kinetics 1.	

	Time step: 21600 seconds  (Incremented time: 36000 seconds)

	Rate name       Delta Moles Total Moles   Reactant        Coefficient

	Fe_di_ox         -0.000e+00   9.999e-01   Fe_di                    -1
	                                          Fe_tri                    1

-------------------------------Phase assemblage--------------------------------

                                                      Moles in assemblage
Phase               SI  log IAP  log K(T, P)   Initial       Final       Delta

O2(g)            -0.67    -3.56     -2.89    1.000e+01   1.000e+01  -3.553e-15

-----------------------------Solution composition------------------------------

	Elements           Molality       Moles

	Cl                1.020e-02   1.020e-02
	Fe_tri            1.000e-04   1.000e-04
	Na                1.000e-02   1.000e-02

----------------------------Description of solution----------------------------

                                       pH  =   7.395      Charge balance
                                       pe  =  13.234      Adjusted to redox equilibrium
      Specific Conductance (µS/cm,  25°C)  = 1188
                          Density (g/cm³)  =   0.99748
                               Volume (L)  =   1.00314
                        Activity of water  =   1.000
                 Ionic strength (mol/kgw)  =   1.030e-02
                       Mass of water (kg)  =   1.000e+00
                 Total alkalinity (eq/kg)  =   1.002e-04
                    Total carbon (mol/kg)  =   0.000e+00
                       Total CO2 (mol/kg)  =   0.000e+00
                         Temperature (°C)  =  25.00
                  Electrical balance (eq)  =   1.036e-13
 Percent error, 100*(Cat-|An|)/(Cat+|An|)  =   0.00
                               Iterations  =   2
                                  Total H  = 1.110124e+02
                                  Total O  = 5.550681e+01

----------------------------Distribution of species----------------------------

                                               Log       Log       Log    mole V
   Species          Molality    Activity  Molality  Activity     Gamma   cm³/mol

   OH-             2.765e-07   2.485e-07    -6.558    -6.605    -0.046     (0)  
   H+              4.413e-08   4.027e-08    -7.355    -7.395    -0.040      0.00
   H2O             5.551e+01   9.997e-01     1.744    -0.000     0.000     18.07
Cl            1.020e-02
   Cl-             1.020e-02   9.170e-03    -1.991    -2.038    -0.046     17.91
Fe_tri        1.000e-04
   Fe_triOH+2      1.000e-04   6.582e-05    -4.000    -4.182    -0.182     (0)  
   Fe_tri+3        1.052e-09   4.106e-10    -8.978    -9.387    -0.409     (0)  
H(0)          0.000e+00
   H2              0.000e+00   0.000e+00   -44.410   -44.409     0.001     (0)  
Na            1.000e-02
   Na+             1.000e-02   9.018e-03    -2.000    -2.045    -0.045     -1.10
   NaOH            1.476e-09   1.479e-09    -8.831    -8.830     0.001     (0)  
O(0)          5.466e-04
   O2              2.733e-04   2.739e-04    -3.563    -3.562     0.001     (0)  

------------------------------Saturation indices-------------------------------

  Phase               SI** log IAP   log K(298 K,   1 atm)

  Goethite         13.80     12.80   -1.00  Fe_triOOH
  H2(g)           -41.26    -44.41   -3.15  H2
  H2O(g)           -1.51     -0.00    1.51  H2O
  Halite           -5.66     -4.08    1.58  NaCl
  O2(g)            -0.67     -3.56   -2.89  O2

**For a gas, SI = log10(fugacity). Fugacity = pressure * phi / 1 atm.
  For ideal gases, phi = 1.

Reaction step 6.

Using solution 1.	
Using pure phase assemblage 1.	
Using kinetics 1.	

Kinetics 1.	

	Time step: 50400 seconds  (Incremented time: 86400 seconds)

	Rate name       Delta Moles Total Moles   Reactant        Coefficient

	Fe_di_ox         -0.000e+00   9.999e-01   Fe_di                    -1
	                                          Fe_tri                    1

-------------------------------Phase assemblage--------------------------------

                                                      Moles in assemblage
Phase               SI  log IAP  log K(T, P)   Initial       Final       Delta

O2(g)            -0.67    -3.56     -2.89    1.000e+01   1.000e+01  -3.553e-15

-----------------------------Solution composition------------------------------

	Elements           Molality       Moles

	Cl                1.020e-02   1.020e-02
	Fe_tri            1.000e-04   1.000e-04
	Na                1.000e-02   1.000e-02

----------------------------Description of solution----------------------------

                                       pH  =   7.395      Charge balance
                                       pe  =  13.234      Adjusted to redox equilibrium
      Specific Conductance (µS/cm,  25°C)  = 1188
                          Density (g/cm³)  =   0.99748
                               Volume (L)  =   1.00314
                        Activity of water  =   1.000
                 Ionic strength (mol/kgw)  =   1.030e-02
                       Mass of water (kg)  =   1.000e+00
                 Total alkalinity (eq/kg)  =   1.002e-04
                    Total carbon (mol/kg)  =   0.000e+00
                       Total CO2 (mol/kg)  =   0.000e+00
                         Temperature (°C)  =  25.00
                  Electrical balance (eq)  =   1.036e-13
 Percent error, 100*(Cat-|An|)/(Cat+|An|)  =   0.00
                               Iterations  =   2
                                  Total H  = 1.110124e+02
                                  Total O  = 5.550681e+01

----------------------------Distribution of species----------------------------

                                               Log       Log       Log    mole V
   Species          Molality    Activity  Molality  Activity     Gamma   cm³/mol

   OH-             2.765e-07   2.485e-07    -6.558    -6.605    -0.046     (0)  
   H+              4.413e-08   4.027e-08    -7.355    -7.395    -0.040      0.00
   H2O             5.551e+01   9.997e-01     1.744    -0.000     0.000     18.07
Cl            1.020e-02
   Cl-             1.020e-02   9.170e-03    -1.991    -2.038    -0.046     17.91
Fe_tri        1.000e-04
   Fe_triOH+2      1.000e-04   6.582e-05    -4.000    -4.182    -0.182     (0)  
   Fe_tri+3        1.052e-09   4.106e-10    -8.978    -9.387    -0.409     (0)  
H(0)          0.000e+00
   H2              0.000e+00   0.000e+00   -44.410   -44.409     0.001     (0)  
Na            1.000e-02
   Na+             1.000e-02   9.018e-03    -2.000    -2.045    -0.045     -1.10
   NaOH            1.476e-09   1.479e-09    -8.831    -8.830     0.001     (0)  
O(0)          5.466e-04
   O2              2.733e-04   2.739e-04    -3.563    -3.562     0.001     (0)  

------------------------------Saturation indices-------------------------------

  Phase               SI** log IAP   log K(298 K,   1 atm)

  Goethite         13.80     12.80   -1.00  Fe_triOOH
  H2(g)           -41.26    -44.41   -3.15  H2
  H2O(g)           -1.51     -0.00    1.51  H2O
  Halite           -5.66     -4.08    1.58  NaCl
  O2(g)            -0.67     -3.56   -2.89  O2

**For a gas, SI = log10(fugacity). Fugacity = pressure * phi / 1 atm.
  For ideal gases, phi = 1.

Reaction step 7.

Using solution 1.	
Using pure phase assemblage 1.	
Using kinetics 1.	

Kinetics 1.	

	Time step: 86400 seconds  (Incremented time: 172800 seconds)

	Rate name       Delta Moles Total Moles   Reactant        Coefficient

	Fe_di_ox         -0.000e+00   9.999e-01   Fe_di                    -1
	                                          Fe_tri                    1

-------------------------------Phase assemblage--------------------------------

                                                      Moles in assemblage
Phase               SI  log IAP  log K(T, P)   Initial       Final       Delta

O2(g)            -0.67    -3.56     -2.89    1.000e+01   1.000e+01  -3.553e-15

-----------------------------Solution composition------------------------------

	Elements           Molality       Moles

	Cl                1.020e-02   1.020e-02
	Fe_tri            1.000e-04   1.000e-04
	Na                1.000e-02   1.000e-02

----------------------------Description of solution----------------------------

                                       pH  =   7.395      Charge balance
                                       pe  =  13.234      Adjusted to redox equilibrium
      Specific Conductance (µS/cm,  25°C)  = 1188
                          Density (g/cm³)  =   0.99748
                               Volume (L)  =   1.00314
                        Activity of water  =   1.000
                 Ionic strength (mol/kgw)  =   1.030e-02
                       Mass of water (kg)  =   1.000e+00
                 Total alkalinity (eq/kg)  =   1.002e-04
                    Total carbon (mol/kg)  =   0.000e+00
                       Total CO2 (mol/kg)  =   0.000e+00
                         Temperature (°C)  =  25.00
                  Electrical balance (eq)  =   1.036e-13
 Percent error, 100*(Cat-|An|)/(Cat+|An|)  =   0.00
                               Iterations  =   2
                                  Total H  = 1.110124e+02
                                  Total O  = 5.550681e+01

----------------------------Distribution of species----------------------------

                                               Log       Log       Log    mole V
   Species          Molality    Activity  Molality  Activity     Gamma   cm³/mol

   OH-             2.765e-07   2.485e-07    -6.558    -6.605    -0.046     (0)  
   H+              4.413e-08   4.027e-08    -7.355    -7.395    -0.040      0.00
   H2O             5.551e+01   9.997e-01     1.744    -0.000     0.000     18.07
Cl            1.020e-02
   Cl-             1.020e-02   9.170e-03    -1.991    -2.038    -0.046     17.91
Fe_tri        1.000e-04
   Fe_triOH+2      1.000e-04   6.582e-05    -4.000    -4.182    -0.182     (0)  
   Fe_tri+3        1.052e-09   4.106e-10    -8.978    -9.387    -0.409     (0)  
H(0)          0.000e+00
   H2              0.000e+00   0.000e+00   -44.410   -44.409     0.001     (0)  
Na            1.000e-02
   Na+             1.000e-02   9.018e-03    -2.000    -2.045    -0.045     -1.10
   NaOH            1.476e-09   1.479e-09    -8.831    -8.830     0.001     (0)  
O(0)          5.466e-04
   O2              2.733e-04   2.739e-04    -3.563    -3.562     0.001     (0)  

------------------------------Saturation indices-------------------------------

  Phase               SI** log IAP   log K(298 K,   1 atm)

  Goethite         13.80     12.80   -1.00  Fe_triOOH
  H2(g)           -41.26    -44.41   -3.15  H2
  H2O(g)           -1.51     -0.00    1.51  H2O
  Halite           -5.66     -4.08    1.58  NaCl
  O2(g)            -0.67     -3.56   -2.89  O2

**For a gas, SI = log10(fugacity). Fugacity = pressure * phi / 1 atm.
  For ideal gases, phi = 1.

Reaction step 8.

Using solution 1.	
Using pure phase assemblage 1.	
Using kinetics 1.	

Kinetics 1.	

	Time step: 172800 seconds  (Incremented time: 345600 seconds)

	Rate name       Delta Moles Total Moles   Reactant        Coefficient

	Fe_di_ox         -0.000e+00   9.999e-01   Fe_di                    -1
	                                          Fe_tri                    1

-------------------------------Phase assemblage--------------------------------

                                                      Moles in assemblage
Phase               SI  log IAP  log K(T, P)   Initial       Final       Delta

O2(g)            -0.67    -3.56     -2.89    1.000e+01   1.000e+01  -3.553e-15

-----------------------------Solution composition------------------------------

	Elements           Molality       Moles

	Cl                1.020e-02   1.020e-02
	Fe_tri            1.000e-04   1.000e-04
	Na                1.000e-02   1.000e-02

----------------------------Description of solution----------------------------

                                       pH  =   7.395      Charge balance
                                       pe  =  13.234      Adjusted to redox equilibrium
      Specific Conductance (µS/cm,  25°C)  = 1188
                          Density (g/cm³)  =   0.99748
                               Volume (L)  =   1.00314
                        Activity of water  =   1.000
                 Ionic strength (mol/kgw)  =   1.030e-02
                       Mass of water (kg)  =   1.000e+00
                 Total alkalinity (eq/kg)  =   1.002e-04
                    Total carbon (mol/kg)  =   0.000e+00
                       Total CO2 (mol/kg)  =   0.000e+00
                         Temperature (°C)  =  25.00
                  Electrical balance (eq)  =   1.036e-13
 Percent error, 100*(Cat-|An|)/(Cat+|An|)  =   0.00
                               Iterations  =   2
                                  Total H  = 1.110124e+02
                                  Total O  = 5.550681e+01

----------------------------Distribution of species----------------------------

                                               Log       Log       Log    mole V
   Species          Molality    Activity  Molality  Activity     Gamma   cm³/mol

   OH-             2.765e-07   2.485e-07    -6.558    -6.605    -0.046     (0)  
   H+              4.413e-08   4.027e-08    -7.355    -7.395    -0.040      0.00
   H2O             5.551e+01   9.997e-01     1.744    -0.000     0.000     18.07
Cl            1.020e-02
   Cl-             1.020e-02   9.170e-03    -1.991    -2.038    -0.046     17.91
Fe_tri        1.000e-04
   Fe_triOH+2      1.000e-04   6.582e-05    -4.000    -4.182    -0.182     (0)  
   Fe_tri+3        1.052e-09   4.106e-10    -8.978    -9.387    -0.409     (0)  
H(0)          0.000e+00
   H2              0.000e+00   0.000e+00   -44.410   -44.409     0.001     (0)  
Na            1.000e-02
   Na+             1.000e-02   9.018e-03    -2.000    -2.045    -0.045     -1.10
   NaOH            1.476e-09   1.479e-09    -8.831    -8.830     0.001     (0)  
O(0)          5.466e-04
   O2              2.733e-04   2.739e-04    -3.563    -3.562     0.001     (0)  

------------------------------Saturation indices-------------------------------

  Phase               SI** log IAP   log K(298 K,   1 atm)

  Goethite         13.80     12.80   -1.00  Fe_triOOH
  H2(g)           -41.26    -44.41   -3.15  H2
  H2O(g)           -1.51     -0.00    1.51  H2O
  Halite           -5.66     -4.08    1.58  NaCl
  O2(g)            -0.67     -3.56   -2.89  O2

**For a gas, SI = log10(fugacity). Fugacity = pressure * phi / 1 atm.
  For ideal gases, phi = 1.

Reaction step 9.

Using solution 1.	
Using pure phase assemblage 1.	
Using kinetics 1.	

Kinetics 1.	

	Time step: 172800 seconds  (Incremented time: 518400 seconds)

	Rate name       Delta Moles Total Moles   Reactant        Coefficient

	Fe_di_ox         -0.000e+00   9.999e-01   Fe_di                    -1
	                                          Fe_tri                    1

-------------------------------Phase assemblage--------------------------------

                                                      Moles in assemblage
Phase               SI  log IAP  log K(T, P)   Initial       Final       Delta

O2(g)            -0.67    -3.56     -2.89    1.000e+01   1.000e+01  -3.553e-15

-----------------------------Solution composition------------------------------

	Elements           Molality       Moles

	Cl                1.020e-02   1.020e-02
	Fe_tri            1.000e-04   1.000e-04
	Na                1.000e-02   1.000e-02

----------------------------Description of solution----------------------------

                                       pH  =   7.395      Charge balance
                                       pe  =  13.234      Adjusted to redox equilibrium
      Specific Conductance (µS/cm,  25°C)  = 1188
                          Density (g/cm³)  =   0.99748
                               Volume (L)  =   1.00314
                        Activity of water  =   1.000
                 Ionic strength (mol/kgw)  =   1.030e-02
                       Mass of water (kg)  =   1.000e+00
                 Total alkalinity (eq/kg)  =   1.002e-04
                    Total carbon (mol/kg)  =   0.000e+00
                       Total CO2 (mol/kg)  =   0.000e+00
                         Temperature (°C)  =  25.00
                  Electrical balance (eq)  =   1.036e-13
 Percent error, 100*(Cat-|An|)/(Cat+|An|)  =   0.00
                               Iterations  =   2
                                  Total H  = 1.110124e+02
                                  Total O  = 5.550681e+01

----------------------------Distribution of species----------------------------

                                               Log       Log       Log    mole V
   Species          Molality    Activity  Molality  Activity     Gamma   cm³/mol

   OH-             2.765e-07   2.485e-07    -6.558    -6.605    -0.046     (0)  
   H+              4.413e-08   4.027e-08    -7.355    -7.395    -0.040      0.00
   H2O             5.551e+01   9.997e-01     1.744    -0.000     0.000     18.07
Cl            1.020e-02
   Cl-             1.020e-02   9.170e-03    -1.991    -2.038    -0.046     17.91
Fe_tri        1.000e-04
   Fe_triOH+2      1.000e-04   6.582e-05    -4.000    -4.182    -0.182     (0)  
   Fe_tri+3        1.052e-09   4.106e-10    -8.978    -9.387    -0.409     (0)  
H(0)          0.000e+00
   H2              0.000e+00   0.000e+00   -44.410   -44.409     0.001     (0)  
Na            1.000e-02
   Na+             1.000e-02   9.018e-03    -2.000    -2.045    -0.045     -1.10
   NaOH            1.476e-09   1.479e-09    -8.831    -8.830     0.001     (0)  
O(0)          5.466e-04
   O2              2.733e-04   2.739e-04    -3.563    -3.562     0.001     (0)  

------------------------------Saturation indices-------------------------------

  Phase               SI** log IAP   log K(298 K,   1 atm)

  Goethite         13.80     12.80   -1.00  Fe_triOOH
  H2(g)           -41.26    -44.41   -3.15  H2
  H2O(g)           -1.51     -0.00    1.51  H2O
  Halite           -5.66     -4.08    1.58  NaCl
  O2(g)            -0.67     -3.56   -2.89  O2

**For a gas, SI = log10(fugacity). Fugacity = pressure * phi / 1 atm.
  For ideal gases, phi = 1.

Reaction step 10.

Using solution 1.	
Using pure phase assemblage 1.	
Using kinetics 1.	

Kinetics 1.	

	Time step: 172800 seconds  (Incremented time: 691200 seconds)

	Rate name       Delta Moles Total Moles   Reactant        Coefficient

	Fe_di_ox         -0.000e+00   9.999e-01   Fe_di                    -1
	                                          Fe_tri                    1

-------------------------------Phase assemblage--------------------------------

                                                      Moles in assemblage
Phase               SI  log IAP  log K(T, P)   Initial       Final       Delta

O2(g)            -0.67    -3.56     -2.89    1.000e+01   1.000e+01  -3.553e-15

-----------------------------Solution composition------------------------------

	Elements           Molality       Moles

	Cl                1.020e-02   1.020e-02
	Fe_tri            1.000e-04   1.000e-04
	Na                1.000e-02   1.000e-02

----------------------------Description of solution----------------------------

                                       pH  =   7.395      Charge balance
                                       pe  =  13.234      Adjusted to redox equilibrium
      Specific Conductance (µS/cm,  25°C)  = 1188
                          Density (g/cm³)  =   0.99748
                               Volume (L)  =   1.00314
                        Activity of water  =   1.000
                 Ionic strength (mol/kgw)  =   1.030e-02
                       Mass of water (kg)  =   1.000e+00
                 Total alkalinity (eq/kg)  =   1.002e-04
                    Total carbon (mol/kg)  =   0.000e+00
                       Total CO2 (mol/kg)  =   0.000e+00
                         Temperature (°C)  =  25.00
                  Electrical balance (eq)  =   1.036e-13
 Percent error, 100*(Cat-|An|)/(Cat+|An|)  =   0.00
                               Iterations  =   2
                                  Total H  = 1.110124e+02
                                  Total O  = 5.550681e+01

----------------------------Distribution of species----------------------------

                                               Log       Log       Log    mole V
   Species          Molality    Activity  Molality  Activity     Gamma   cm³/mol

   OH-             2.765e-07   2.485e-07    -6.558    -6.605    -0.046     (0)  
   H+              4.413e-08   4.027e-08    -7.355    -7.395    -0.040      0.00
   H2O             5.551e+01   9.997e-01     1.744    -0.000     0.000     18.07
Cl            1.020e-02
   Cl-             1.020e-02   9.170e-03    -1.991    -2.038    -0.046     17.91
Fe_tri        1.000e-04
   Fe_triOH+2      1.000e-04   6.582e-05    -4.000    -4.182    -0.182     (0)  
   Fe_tri+3        1.052e-09   4.106e-10    -8.978    -9.387    -0.409     (0)  
H(0)          0.000e+00
   H2              0.000e+00   0.000e+00   -44.410   -44.409     0.001     (0)  
Na            1.000e-02
   Na+             1.000e-02   9.018e-03    -2.000    -2.045    -0.045     -1.10
   NaOH            1.476e-09   1.479e-09    -8.831    -8.830     0.001     (0)  
O(0)          5.466e-04
   O2              2.733e-04   2.739e-04    -3.563    -3.562     0.001     (0)  

------------------------------Saturation indices-------------------------------

  Phase               SI** log IAP   log K(298 K,   1 atm)

  Goethite         13.80     12.80   -1.00  Fe_triOOH
  H2(g)           -41.26    -44.41   -3.15  H2
  H2O(g)           -1.51     -0.00    1.51  H2O
  Halite           -5.66     -4.08    1.58  NaCl
  O2(g)            -0.67     -3.56   -2.89  O2

**For a gas, SI = log10(fugacity). Fugacity = pressure * phi / 1 atm.
  For ideal gases, phi = 1.

Reaction step 11.

Using solution 1.	
Using pure phase assemblage 1.	
Using kinetics 1.	

Kinetics 1.	

	Time step: 172800 seconds  (Incremented time: 864000 seconds)

	Rate name       Delta Moles Total Moles   Reactant        Coefficient

	Fe_di_ox         -0.000e+00   9.999e-01   Fe_di                    -1
	                                          Fe_tri                    1

-------------------------------Phase assemblage--------------------------------

                                                      Moles in assemblage
Phase               SI  log IAP  log K(T, P)   Initial       Final       Delta

O2(g)            -0.67    -3.56     -2.89    1.000e+01   1.000e+01  -3.553e-15

-----------------------------Solution composition------------------------------

	Elements           Molality       Moles

	Cl                1.020e-02   1.020e-02
	Fe_tri            1.000e-04   1.000e-04
	Na                1.000e-02   1.000e-02

----------------------------Description of solution----------------------------

                                       pH  =   7.395      Charge balance
                                       pe  =  13.234      Adjusted to redox equilibrium
      Specific Conductance (µS/cm,  25°C)  = 1188
                          Density (g/cm³)  =   0.99748
                               Volume (L)  =   1.00314
                        Activity of water  =   1.000
                 Ionic strength (mol/kgw)  =   1.030e-02
                       Mass of water (kg)  =   1.000e+00
                 Total alkalinity (eq/kg)  =   1.002e-04
                    Total carbon (mol/kg)  =   0.000e+00
                       Total CO2 (mol/kg)  =   0.000e+00
                         Temperature (°C)  =  25.00
                  Electrical balance (eq)  =   1.036e-13
 Percent error, 100*(Cat-|An|)/(Cat+|An|)  =   0.00
                               Iterations  =   2
                                  Total H  = 1.110124e+02
                                  Total O  = 5.550681e+01

----------------------------Distribution of species----------------------------

                                               Log       Log       Log    mole V
   Species          Molality    Activity  Molality  Activity     Gamma   cm³/mol

   OH-             2.765e-07   2.485e-07    -6.558    -6.605    -0.046     (0)  
   H+              4.413e-08   4.027e-08    -7.355    -7.395    -0.040      0.00
   H2O             5.551e+01   9.997e-01     1.744    -0.000     0.000     18.07
Cl            1.020e-02
   Cl-             1.020e-02   9.170e-03    -1.991    -2.038    -0.046     17.91
Fe_tri        1.000e-04
   Fe_triOH+2      1.000e-04   6.582e-05    -4.000    -4.182    -0.182     (0)  
   Fe_tri+3        1.052e-09   4.106e-10    -8.978    -9.387    -0.409     (0)  
H(0)          0.000e+00
   H2              0.000e+00   0.000e+00   -44.410   -44.409     0.001     (0)  
Na            1.000e-02
   Na+             1.000e-02   9.018e-03    -2.000    -2.045    -0.045     -1.10
   NaOH            1.476e-09   1.479e-09    -8.831    -8.830     0.001     (0)  
O(0)          5.466e-04
   O2              2.733e-04   2.739e-04    -3.563    -3.562     0.001     (0)  

------------------------------Saturation indices-------------------------------

  Phase               SI** log IAP   log K(298 K,   1 atm)

  Goethite         13.80     12.80   -1.00  Fe_triOOH
  H2(g)           -41.26    -44.41   -3.15  H2
  H2O(g)           -1.51     -0.00    1.51  H2O
  Halite           -5.66     -4.08    1.58  NaCl
  O2(g)            -0.67     -3.56   -2.89  O2

**For a gas, SI = log10(fugacity). Fugacity = pressure * phi / 1 atm.
  For ideal gases, phi = 1.

------------------
End of simulation.
------------------

------------------------------------
Reading input data for simulation 3.
------------------------------------

---------------------------------
End of Run after 0.04493 Seconds.
---------------------------------

