   Input file: fromweb.txt
  Output file: fromweb.txt.out
Database file: phreeqc.dat

------------------
Reading data base.
------------------

	SOLUTION_MASTER_SPECIES
	SOLUTION_SPECIES
	PHASES
	EXCHANGE_MASTER_SPECIES
	EXCHANGE_SPECIES
	SURFACE_MASTER_SPECIES
	SURFACE_SPECIES
	RATES
------------------------------------
Reading input data for simulation 1.
------------------------------------

----------------------------------
End of Run after 0.008051 Seconds.
----------------------------------

