   Input file: runphreeqc2.txt
  Output file: runphreeqc2.txt.out
Database file: phreeqc.dat

------------------
Reading data base.
------------------

	SOLUTION_MASTER_SPECIES
	SOLUTION_SPECIES
	PHASES
	EXCHANGE_MASTER_SPECIES
	EXCHANGE_SPECIES
	SURFACE_MASTER_SPECIES
	SURFACE_SPECIES
	RATES
------------------------------------
Reading input data for simulation 1.
------------------------------------

	SOLUTION_SPECIES
	H2O + 0.01e- = H2O-0.01
	log_k   -9.0
	SOLUTION 1
	       pe      13.75
	       pH      7 
	       Alkalinity 0.002
	       temp      25
	units mol/kgw
	Ca 0.001 
	KNOBS
	iterations 200
	EQUILIBRIUM_PHASES 1
	CO2(g)   -3.5
	SELECTED_OUTPUT
	file selected.out
	selected_out true
	user_punch true
	high_precision true
	reset false
	simulation false
	state false
	distance false
	time false
	step false
	ph false
	pe false
	reaction false
	temperature false
	alkalinity false
	ionic_strength false
	water false
	charge_balance false
	percent_error false
	molalities H+  
	equilibrium_phases CO2(g)  
-------------------------------------------
Beginning of initial solution calculations.
-------------------------------------------

Initial solution 1.	

-----------------------------Solution composition------------------------------

	Elements           Molality       Moles

	Alkalinity        2.000e-03   2.000e-03
	Ca                1.000e-03   1.000e-03

----------------------------Description of solution----------------------------

                                       pH  =   7.000    
                                       pe  =  13.750    
      Specific Conductance (µS/cm,  25°C)  = 192
                          Density (g/cm³)  =   0.99722
                               Volume (L)  =   1.00300
                        Activity of water  =   1.000
                 Ionic strength (mol/kgw)  =   2.959e-03
                       Mass of water (kg)  =   1.000e+00
                    Total carbon (mol/kg)  =   2.417e-03
                       Total CO2 (mol/kg)  =   2.417e-03
                         Temperature (°C)  =  25.00
                  Electrical balance (eq)  =  -7.286e-12
 Percent error, 100*(Cat-|An|)/(Cat+|An|)  =  -0.00
                               Iterations  =   6
                                  Total H  = 1.110144e+02
                                  Total O  = 5.551471e+01

----------------------------Distribution of species----------------------------

                                               Log       Log       Log    mole V
   Species          Molality    Activity  Molality  Activity     Gamma    cm³/mol

   OH-             1.063e-07   1.001e-07    -6.973    -7.000    -0.026     (0)  
   H+              1.057e-07   1.000e-07    -6.976    -7.000    -0.024      0.00
   H2O-0.01        7.286e-10   7.286e-10    -9.138    -9.138    -0.000     (0)  
   H2O             5.551e+01   9.999e-01     1.744    -0.000     0.000     18.07
C(4)          2.417e-03
   HCO3-           1.976e-03   1.864e-03    -2.704    -2.730    -0.025     24.35
   CO2             4.189e-04   4.192e-04    -3.378    -3.378     0.000     (0)  
   CaHCO3+         1.955e-05   1.844e-05    -4.709    -4.734    -0.025     (0)  
   CaCO3           1.138e-06   1.139e-06    -5.944    -5.944     0.000     (0)  
   CO3-2           1.104e-06   8.742e-07    -5.957    -6.058    -0.101     -3.56
Ca            1.000e-03
   Ca+2            9.793e-04   7.754e-04    -3.009    -3.110    -0.101    -17.62
   CaHCO3+         1.955e-05   1.844e-05    -4.709    -4.734    -0.025     (0)  
   CaCO3           1.138e-06   1.139e-06    -5.944    -5.944     0.000     (0)  
   CaOH+           1.366e-09   1.287e-09    -8.865    -8.890    -0.026     (0)  
H(0)          0.000e+00
   H2              0.000e+00   0.000e+00   -44.650   -44.650     0.000     (0)  
O(0)          1.662e-03
   O2              8.311e-04   8.316e-04    -3.080    -3.080     0.000     (0)  

------------------------------Saturation indices-------------------------------

  Phase               SI** log IAP   log K(298 K,   1 atm)

  Aragonite        -0.83     -9.17   -8.34  CaCO3
  Calcite          -0.69     -9.17   -8.48  CaCO3
  CO2(g)           -1.91     -3.38   -1.47  CO2
  H2(g)           -41.50    -44.65   -3.15  H2
  H2O(g)           -1.51     -0.00    1.51  H2O
  O2(g)            -0.19     -3.08   -2.89  O2

**For a gas, SI = log10(fugacity). Fugacity = pressure * phi / 1 atm.
  For ideal gases, phi = 1.

-----------------------------------------
Beginning of batch-reaction calculations.
-----------------------------------------

Reaction step 1.

Using solution 1.	
Using pure phase assemblage 1.	

-------------------------------Phase assemblage--------------------------------

                                                      Moles in assemblage
Phase               SI  log IAP  log K(T, P)   Initial       Final       Delta

CO2(g)           -3.50    -4.97     -1.47    1.000e+01   1.000e+01   4.835e-04

-----------------------------Solution composition------------------------------

	Elements           Molality       Moles

	C                 1.933e-03   1.933e-03
	Ca                1.000e-03   1.000e-03

----------------------------Description of solution----------------------------

                                       pH  =   8.558      Charge balance
                                       pe  =  12.192      Adjusted to redox equilibrium
      Specific Conductance (µS/cm,  25°C)  = 187
                          Density (g/cm³)  =   0.99720
                               Volume (L)  =   1.00299
                        Activity of water  =   1.000
                 Ionic strength (mol/kgw)  =   2.891e-03
                       Mass of water (kg)  =   1.000e+00
                 Total alkalinity (eq/kg)  =   2.000e-03
                       Total CO2 (mol/kg)  =   1.933e-03
                         Temperature (°C)  =  25.00
                  Electrical balance (eq)  =  -7.286e-12
 Percent error, 100*(Cat-|An|)/(Cat+|An|)  =  -0.00
                               Iterations  =  12
                                  Total H  = 1.110144e+02
                                  Total O  = 5.551374e+01

----------------------------Distribution of species----------------------------

                                               Log       Log       Log    mole V
   Species          Molality    Activity  Molality  Activity     Gamma    cm³/mol

   OH-             3.835e-06   3.614e-06    -5.416    -5.442    -0.026     (0)  
   H+              2.925e-09   2.770e-09    -8.534    -8.558    -0.024      0.00
   H2O-0.01        7.552e-10   7.552e-10    -9.122    -9.122    -0.000     (0)  
   H2O             5.551e+01   9.999e-01     1.744    -0.000     0.000     18.07
C(-4)         0.000e+00
   CH4             0.000e+00   0.000e+00  -146.578  -146.578     0.000     (0)  
C(4)          1.933e-03
   HCO3-           1.831e-03   1.729e-03    -2.737    -2.762    -0.025     24.35
   CaCO3           3.687e-05   3.690e-05    -4.433    -4.433     0.000     (0)  
   CO3-2           3.685e-05   2.926e-05    -4.434    -4.534    -0.100     -3.56
   CaHCO3+         1.753e-05   1.655e-05    -4.756    -4.781    -0.025     (0)  
   CO2             1.076e-05   1.077e-05    -4.968    -4.968     0.000     (0)  
Ca            1.000e-03
   Ca+2            9.455e-04   7.505e-04    -3.024    -3.125    -0.100    -17.63
   CaCO3           3.687e-05   3.690e-05    -4.433    -4.433     0.000     (0)  
   CaHCO3+         1.753e-05   1.655e-05    -4.756    -4.781    -0.025     (0)  
   CaOH+           4.769e-08   4.496e-08    -7.322    -7.347    -0.026     (0)  
H(0)          0.000e+00
   H2              0.000e+00   0.000e+00   -44.650   -44.650     0.000     (0)  
O(0)          1.662e-03
   O2              8.311e-04   8.316e-04    -3.080    -3.080     0.000     (0)  

------------------------------Saturation indices-------------------------------

  Phase               SI** log IAP   log K(298 K,   1 atm)

  Aragonite         0.68     -7.66   -8.34  CaCO3
  Calcite           0.82     -7.66   -8.48  CaCO3
  CH4(g)         -143.72   -146.58   -2.86  CH4
  CO2(g)           -3.50     -4.97   -1.47  CO2
  H2(g)           -41.50    -44.65   -3.15  H2
  H2O(g)           -1.51     -0.00    1.51  H2O
  O2(g)            -0.19     -3.08   -2.89  O2

**For a gas, SI = log10(fugacity). Fugacity = pressure * phi / 1 atm.
  For ideal gases, phi = 1.

------------------
End of simulation.
------------------

------------------------------------
Reading input data for simulation 2.
------------------------------------

----------------------------------
End of Run after 0.009248 Seconds.
----------------------------------

